%mem=300mb
%chk=ch3oh.chk
#B3LYP 6-31G** SCF=direct OPT FREQ
 
ch3oh
 
0 1
6       -0.425852151     -1.609206478     -6.183507926
1       -0.425852151     -2.445089113     -6.887808732
1       -1.317701151     -0.996729296     -6.385211868
1        0.465996849     -0.996729296     -6.385211868
8       -0.425852151     -2.168293852     -4.880238510
1       -0.425852151     -1.439190835     -4.247791527

 
