%mem=300mb
%chk=ch3oh.chk
# B3LYP 6-31G** SCF=direct OPT FREQ
 
ch3oh
 
0 1
6       -0.975735000      2.961399000      0.133603000
1       -1.933911000      3.308680000      0.528593000
1       -0.242552000      2.971514000      0.952712000
1       -0.646167000      3.674273000     -0.635506000
8       -1.187286000      1.659605000     -0.394868000
1       -0.334500000      1.313291000     -0.697932000
6        0.249607000     -1.748088000     -0.249202000
1        1.208147000     -2.093593000     -0.644855000
1       -0.077432000     -2.460810000      0.521127000
1       -0.484441000     -1.760822000     -1.067494000
8        0.458762000     -0.445212000      0.277553000
1       -0.394500000     -0.100615000      0.581332000

 
