%mem=300mb
%chk=phenol.chk
#B3LYP 6-31G** SCF=direct TEST

phenol
 
0 1
6       -0.565878198      0.750417497     -1.502976109
6       -1.770997589      0.750417497     -0.780467546
6        0.639241192      0.750417497     -0.780467546
6       -1.771321445      0.750417497      0.613384613
6        0.639565048      0.750417497      0.613384613
6       -0.565878198      0.750417497      1.317032188
1       -2.709373645      0.750417497     -1.315117317
1        1.577617248      0.750417497     -1.315117317
1       -2.709965641      0.750417497      1.147563492
1        1.578209244      0.750417497      1.147563492
1       -0.565878198      0.750417497      2.397032188
8       -0.565878198      0.750417497     -2.942976109
1        0.390914457      0.757498167     -3.021063749
 
