%mem=300mb
%chk=phenol_trimer.chk
#B3LYP 6-31G** SCF=direct TEST
 
phenol_trimer
 
0 1
8        0.114413309     -1.040905158     -0.043260103
1       -0.311583812     -0.198446157     -0.313915086
8        2.031473587      0.794907722      0.651687909
1        1.540610461     -0.049912483      0.550062787
8       -0.325359366      1.646998915     -0.461946848
1        0.588106145      1.636515229     -0.099747682
6       -0.228889695     -2.438570545     -0.090951970
6       -1.478313857     -2.859492432     -0.576848459
6        0.676035355     -3.420183673      0.347086486
6       -1.810904464     -4.212291341     -0.623136086
6        0.344023694     -4.773133258      0.301047151
6       -0.901193390     -5.175673314     -0.184348819
1       -2.193270617     -2.118464587     -0.920620140
1        1.647233323     -3.117994703      0.726455356
1       -2.782866049     -4.514155588     -1.002840881
1        1.059802241     -5.514248999      0.645162839
1       -1.160101154     -6.229746294     -0.220316448
6        3.316396306      1.194708185      1.164262974
6        3.666654870      2.552289929      1.257118323
6        4.255537281      0.238319854      1.585768561
6        4.910320400      2.939588861      1.753222677
6        5.499361064      0.624996945      2.081961235
6        5.832710701      1.977653060      2.168058762
1        2.956670304      3.308627459      0.937212303
1        4.006456109     -0.816428561      1.523088784
1        5.159076030      3.995154840      1.815738100
1        6.209453450     -0.132225892      2.401944756
1        6.801756893      2.279169337      2.554625913
6       -1.266364517      2.640120194     -0.911190026
6       -0.882485010      3.983360901     -1.061763259
6       -2.594527746      2.293460916     -1.211425188
6       -1.793103621      4.944882576     -1.496589381
6       -3.505606441      3.254528458     -1.646291529
6       -3.109171692      4.584988420     -1.790960506
1        0.138684209      4.274049285     -0.835537500
1       -2.913331144      1.261507256     -1.102336041
1       -1.473590546      5.977373902     -1.605585399
1       -4.527325889      2.963134128     -1.872534296
1       -3.818846635      5.333967621     -2.129764843

 
